#!/sbin/sh

umask 022
ui_print() { echo "$1"; }

if [ ! -f /data/adb/magisk/util_functions.sh ]; then
  ui_print "*******************************"
  ui_print " Please install Magisk v20.4+! "
  ui_print "*******************************"
  exit 1
fi

. /data/adb/magisk/util_functions.sh
[ $? -ne 0 ] && exit 1

cd $MODPATH
. $MODPATH/customize.sh
exit $?